Version 4
SHEET 1 880 680
WIRE 96 80 64 80
WIRE 96 112 96 80
WIRE 144 112 96 112
FLAG 64 80 a
IOPIN 64 80 In
FLAG 144 112 o
IOPIN 144 112 Out
